! This is a test case for setting integral constraint over a *body force*.
! Here the integral over temperature should be exactly one. 
! The constraint allows setting the temperature without actually
! defining the profile.
!
! P.R. 16.12.2024

Header
  CHECK KEYWORDS Warn
  Mesh DB "." "squares"
  Include Path ""
  Results Directory ""
End

Simulation
  Max Output Level = 5

  Coordinate System = "Cartesian"
  Simulation Type = "Steady State"
  Steady State Max Iterations = 1
  Output Intervals = 0

!  Post File = "case.vtu"
!  Ascii Output = True
End

Body 1
  Name = "Body1"
  Equation = 1
  Material = 1
End

Body 2
  Name = "Body2"
  Equation = 1
  Material = 1
  Body Force = 1
End

Equation 1
  Name = "Equations"
  Active Solvers(1) = 1 
End

Solver 1
  Equation = "Heat Equation"
  Variable = "Temperature"

  Linear System Solver = "Direct"
  Linear System Direct Method = "umfpack"
  Nonlinear System Max Iterations = 1

  Apply Integral BCs = Logical True

!  Optimize Bandwidth = False
End


Solver 2
  Exec Solver = never

  Equation = SaveLine
  Procedure = "SaveData" "SaveLine"

  Filename = f.dat
  Variable 1 = Tempeture
  Operator 1 = "boundary int"
End

Material 1
  Name = "Material"
  Density = 1
  Heat Conductivity = 1
End

Boundary Condition 1
  Name = "Fixed"
  Target Boundaries(1) = 1 
  Temperature = 0
End

Boundary Condition 2
  Name = "Internal"
  Target Boundaries(1) = 2 
End

Body Force 1 
  Name = "Constraint"

  Integral BC = Logical True
  Integral BC Temperature = Real 1

! The volue of this BF is 0.25 hence the
! average temperature should be 4 to yield integral 1.
End

Solver 1 :: Reference Norm = 1.53250847E+00
 