! Test case for setting nodal load for pressure.
! This is actually a volume source for flow.
! Probably does not make much physical sense but technically works. 

Header
  CHECK KEYWORDS Warn
  Mesh DB "." "square"
  Include Path ""
  Results Directory ""
End

Simulation
  Max Output Level = 20
  Coordinate System = Cartesian
  Coordinate Mapping(3) = 1 2 3
  Simulation Type = Steady state
  Steady State Max Iterations = 1
  Output Intervals = 1
  Post File = case.vtu
  Ascii Output = Logical True
End

Constants
  Gravity(4) = 0 -1 0 9.82
End

Body 1
  Target Bodies(1) = 1
  Name = "Body 1"
  Equation = 1
  Material = 1
End

Solver 1
  Equation = Navier-Stokes

  Procedure = "FlowSolve" "FlowSolver"
  Variable = Flow Solution[Velocity:2 Pressure:1]

  Flow Model = "stokes"

  Stabilize = True

  Nonlinear System Max Iterations = 1
 
  Linear System Solver = Direct
  Linear System Direct Method = UMFPack

  Linear System Solver = "Iterative"
  Linear System Iterative Method = "BiCGStabl"
  Linear System Max Iterations = 1000
  Linear System Convergence Tolerance = 1.0e-10
  Linear System Abort Not Converged = True
  Linear System Preconditioning = "ILU1"
End

Equation 1
  Name = "Equation 1"
  Active Solvers(1) = 1
End

Material 1
  Name = "Ideal"
  Density = 1.0
  Viscosity = 1.0
End

Boundary Condition 1
  Name = "Walls_x"
  Target Boundaries(2) = 1 3
!  Velocity 2 = 0
End 

Boundary Condition 2
  Name = "Walls_y"
  Target Boundaries(2) = 2 4
!  Velocity 1 = 0
End

Boundary Condition 3
  Name = "PointSource"

  Target Coordinates(1,2) = 0.5 0.5 
  Pressure Load = Real 1.0 

  Velocity 1 = 0.0
  Velocity 2 = 0.0
End

Solver 1 :: Reference Norm = 6.11611472E-01
Solver 1 :: Reference Norm Tolerance = 1.0e-4
